5
id=4442308832
C      0.000000000000    0.000000000000    0.000000000000
H      0.000000000000    0.000000000000    1.089000000000
H      1.026719000000    0.000000000000   -0.363000000000
H     -0.513360000000   -0.889165000000   -0.363000000000
H     -0.513360000000    0.889165000000   -0.363000000000
